output/compact_ny_2025/sensitivities/charging_zero/attempt_1_MIPS_fresh_pf_bus.csv
source_bus,bus_type,vm_pu,vmin_pu,vmax_pu,p_mismatch_mw,q_mismatch_mvar,voltage_below_min_pu,voltage_above_max_pu,violated,invalid_voltage_bounds
37,1,1.07248367857697,0.9,1.1,7.38964445190504e-13,1.01209405439784e-11,0,0,0,0
38,1,1.083622396481,0.9,1.1,-2.27373675443232e-13,-4.44045841763163e-12,0,0,0,0
39,1,1.07500720426587,0.9,1.1,-5.11590769747272e-13,-6.52278231427772e-12,0,0,0,0
40,1,1.07053036412608,0.9,1.1,-6.90806094633581e-15,1.52129946297235e-12,0,0,0,0
41,1,1.07954079813008,0.9,1.1,-1.70530256582424e-13,-2.99849034490762e-12,0,0,0,0
42,3,1.09999999800196,0.9,1.1,0,2.8421709430404e-14,0,0,0,0
43,1,1.05637255273888,0.9,1.1,3.97903932025656e-13,7.77711228749922e-12,0,0,0,0
44,1,1.03962523255584,0.9,1.1,5.11590769747272e-13,-3.7025937871249e-12,0,0,0,0
45,1,1.01705300017718,0.9,1.1,-2.27373675443232e-13,1.58451030074502e-12,0,0,0,0
46,1,0.922154536107956,0.9,1.1,-1.06581410364015e-13,4.2632564145606e-14,0,0,0,0
47,2,0.900000007796997,0.9,1.1,5.11590769747272e-13,2.27373675443232e-13,0,0,0,0
48,2,1.09999999461815,0.9,1.1,-3.35318752471696e-13,0,0,0,0,0
49,1,1.05748572136706,0.9,1.1,-5.6843418860808e-14,-5.41788836017076e-14,0,0,0,0
50,2,1.05959211974517,0.9,1.1,-4.54747350886464e-13,2.8421709430404e-12,0,0,0,0
51,2,0.900000004244774,0.9,1.1,-2.8421709430404e-14,-1.47792889038101e-12,0,0,0,0
52,1,0.995401588296111,0.9,1.1,4.96632511516416e-13,-6.70074799696272e-13,0,0,0,0
53,2,1.01085757496146,0.9,1.1,-5.6843418860808e-14,-2.27373675443232e-13,0,0,0,0
54,2,0.912569195446776,0.9,1.1,-9.09494701772928e-13,-2.72848410531878e-12,0,0,0,0
55,2,0.98381883578178,0.9,1.1,8.5265128291212e-14,6.82121026329696e-13,0,0,0,0
56,2,0.935355517862481,0.9,1.1,-5.6843418860808e-13,1.74793512996985e-12,0,0,0,0
57,2,0.967804909567839,0.9,1.1,-1.4033219031262e-13,-7.105427357601e-14,0,0,0,0
58,1,0.935155804076456,0.9,1.1,4.83169060316868e-13,2.05524486318609e-12,0,0,0,0
59,1,0.937057911766592,0.9,1.1,-3.97903932025656e-13,8.66862137627322e-13,0,0,0,0
60,2,0.929480908900783,0.9,1.1,-4.2632564145606e-14,8.10018718766514e-13,0,0,0,0
61,2,0.956991958092861,0.9,1.1,0,2.55795384873636e-13,0,0,0,0
62,1,0.941030813290019,0.9,1.1,-3.95815438829873e-13,3.1074219006613e-13,0,0,0,0
63,1,0.988759198246939,0.9,1.1,1.07025494016064e-14,8.78403777117457e-13,0,0,0,0
64,1,0.969287862283086,0.9,1.1,-2.1316282072803e-13,-4.2632564145606e-14,0,0,0,0
65,2,0.900000002503795,0.9,1.1,7.90478793533111e-14,2.8421709430404e-14,0,0,0,0
66,1,1.08830740897894,0.9,1.1,-1.66977542903624e-13,-2.37310171513627e-12,0,0,0,0
67,1,1.08048113755701,0.9,1.1,2.48689957516035e-14,9.54791801177635e-13,0,0,0,0
68,2,1.09999999675001,0.9,1.1,1.4210854715202e-13,-1.84741111297626e-13,0,0,0,0
69,1,1.09394026017045,0.9,1.1,9.21857068532148e-14,1.94650421094527e-12,0,0,0,0
70,1,1.0862371607221,0.9,1.1,-3.11424811489701e-14,7.71189375876806e-13,0,0,0,0
71,2,1.08617222854305,0.9,1.1,-2.8421709430404e-13,-2.38742359215394e-12,0,0,0,0
72,2,0.959972343338597,0.9,1.1,1.70530256582424e-13,1.93267624126747e-12,0,0,0,0
73,1,1.0750059785315,0.9,1.1,7.04858393874019e-12,3.53423956767074e-11,0,0,0,0
74,1,1.08123763733205,0.9,1.1,-6.42330633127131e-12,-1.65645275274073e-11,0,0,0,0
75,1,1.08094271594986,0.9,1.1,-6.03961325396085e-13,-2.62845301080006e-12,0,0,0,0
76,1,1.08096126868816,0.9,1.1,-6.13908923696727e-12,-8.92441676114686e-12,0,0,0,0
77,1,1.08159679011898,0.9,1.1,-1.96910687731832e-12,3.57879166949117e-12,0,0,0,0
78,2,1.08191285673791,0.9,1.1,1.04876107798191e-11,4.61568561149761e-11,0,0,0,0
79,2,1.0999999992806,0.9,1.1,6.13908923696727e-12,-7.95807864051312e-13,0,0,0,0
80,2,0.900000000410551,0.9,1.1,2.27373675443232e-13,0,0,0,0,0
81,1,1.04203615382878,0.9,1.1,1.13686837721616e-12,2.77111666946439e-12,0,0,0,0
82,2,1.09999999917599,0.9,1.1,1.13686837721616e-12,-2.50111042987555e-12,0,0,0,0
9001,1,1.07398612588413,0.9,1.1,8.46546893325191e-14,-4.6135339071519e-12,0,0,0,0
9002,1,1.07867351641472,0.9,1.1,-4.88122591496831e-12,-1.15651760754006e-11,0,0,0,0
9003,1,0.99107336075664,0.9,1.1,-1.02318153949454e-12,-3.51940698806175e-12,0,0,0,0
858,1,1.07685321365745,0.9,1.1,-1.06964615794509e-12,1.25737656374213e-11,0,0,0,0
774,1,1.08136617933864,0.9,1.1,3.57357071263982e-12,2.4374829580493e-11,0,0,0,0
9101,1,1.06510270901399,0.9,1.1,6.95004117887908e-13,-6.05590085193894e-11,0,0,0,0
9102,1,1.06405731241992,0.9,1.1,-2.64707049496051e-12,1.50256866180552e-11,0,0,0,0
9103,1,1.05869308919976,0.9,1.1,2.26682405321853e-13,3.02391882021243e-12,0,0,0,0
9104,1,1.07423053982731,0.9,1.1,-7.57723224544668e-13,9.19897356610061e-14,0,0,0,0
1220,1,1.03561350541899,0.9,1.1,-3.52342709702364e-13,-1.05936571341543e-13,0,0,0,0
1130,1,1.08941811651363,0.9,1.1,-4.14152868651898e-12,-7.71228970704007e-12,0,0,0,0
557,1,1.08953314554274,0.9,1.1,-5.79701740548137e-12,-1.20801255259351e-11,0,0,0,0
1529,1,1.07706658925422,0.9,1.1,-3.21076623454598e-12,-5.48998927609874e-12,0,0,0,0
1493,1,1.07600641697882,0.9,1.1,-1.77580267126299e-11,4.6199940297524e-12,0,0,0,0
601,1,1.07549278380804,0.9,1.1,2.55566730323098e-11,3.75738945195092e-11,0,0,0,0
1129,1,1.06251857292731,0.9,1.1,-4.15737432425579e-12,-3.63193554641363e-11,0,0,0,0
9111,1,1.07040990656301,0.9,1.1,1.08357150242286e-12,-3.42006206916529e-12,0,0,0,0
9112,1,1.07023933473309,0.9,1.1,-8.8380610331419e-12,2.27195383261028e-12,0,0,0,0
9113,1,1.06149895337193,0.9,1.1,3.65507734268617e-13,-9.28640417531656e-14,0,0,0,0
9114,1,1.06576760997849,0.9,1.1,2.23388419827935e-12,5.68197675262768e-12,0,0,0,0
